<?xml version="1.0" encoding="UTF-8"?>

<!-- generated on 2024-02-12 13:46:58 by Eclipse SUMO netedit Version 1.19.0
<configuration xmlns:xsi="http://www.w3.org/2001/XMLSchema-instance" xsi:noNamespaceSchemaLocation="http://sumo.dlr.de/xsd/neteditConfiguration.xsd">

    <input>
        <sumocfg-file value="C:\Users\Arunabha Saha\Documents\sumo_tests\test\test.sumocfg"/>
        <route-files value="C:\Users\Arunabha Saha\Documents\sumo_tests\test\test.rou.xml"/>
        <sumo-net-file value="C:\Users\Arunabha Saha\Documents\sumo_tests\test\test.net.xml"/>
    </input>

    <output>
        <output-file value="C:\Users\Arunabha Saha\Documents\sumo_tests\test\test.net.xml"/>
    </output>

    <processing>
        <geometry.min-radius.fix.railways value="false"/>
        <geometry.max-grade.fix value="false"/>
        <offset.disable-normalization value="true"/>
        <lefthand value="0"/>
    </processing>

    <junctions>
        <no-turnarounds value="true"/>
        <junctions.corner-detail value="5"/>
        <junctions.limit-turn-speed value="5.50"/>
        <rectangular-lane-cut value="0"/>
    </junctions>

    <pedestrian>
        <walkingareas value="0"/>
    </pedestrian>

</configuration>
-->

<net version="1.16" junctionCornerDetail="5" limitTurnSpeed="5.50" xmlns:xsi="http://www.w3.org/2001/XMLSchema-instance" xsi:noNamespaceSchemaLocation="http://sumo.dlr.de/xsd/net_file.xsd">

    <location netOffset="0.00,0.00" convBoundary="-27.53,36.98,117.90,75.15" origBoundary="-10000000000.00,-10000000000.00,10000000000.00,10000000000.00" projParameter="!"/>

    <edge id=":J10_0" function="internal">
        <lane id=":J10_0_0" index="0" speed="3.98" length="1.88" shape="62.91,36.72 63.16,36.30 63.48,35.99 63.89,35.80 64.38,35.74"/>
    </edge>
    <edge id=":J9_0" function="internal">
        <lane id=":J9_0_0" index="0" speed="3.97" length="1.88" shape="46.68,73.08 47.17,73.02 47.58,72.83 47.90,72.53 48.15,72.10"/>
    </edge>

    <edge id="E4" from="J8" to="J9" priority="-1">
        <lane id="E4_0" index="0" speed="13.89" length="74.22" shape="-27.54,73.55 46.68,73.08"/>
    </edge>
    <edge id="E5" from="J9" to="J10" priority="-1">
        <lane id="E5_0" index="0" speed="13.89" length="38.33" shape="48.15,72.10 62.91,36.72"/>
    </edge>
    <edge id="E6" from="J10" to="J11" priority="-1">
        <lane id="E6_0" index="0" speed="13.89" length="53.51" shape="64.38,35.74 117.89,35.38"/>
    </edge>

    <junction id="J10" type="priority" x="64.39" y="37.34" incLanes="E5_0" intLanes=":J10_0_0" shape="64.39,37.34 64.37,34.14 63.10,34.37 62.58,34.64 62.12,35.02 61.74,35.51 61.44,36.11">
        <request index="0" response="0" foes="0" cont="0"/>
    </junction>
    <junction id="J11" type="dead_end" x="117.90" y="36.98" incLanes="E6_0" intLanes="" shape="117.88,33.78 117.90,36.98"/>
    <junction id="J8" type="dead_end" x="-27.53" y="75.15" incLanes="" intLanes="" shape="-27.53,75.15 -27.55,71.95"/>
    <junction id="J9" type="priority" x="48.81" y="74.67" incLanes="E4_0" intLanes=":J9_0_0" shape="49.63,72.72 46.67,71.48 46.69,74.68 47.96,74.46 48.48,74.18 48.94,73.80 49.32,73.31">
        <request index="0" response="0" foes="0" cont="0"/>
    </junction>

    <connection from="E4" to="E5" fromLane="0" toLane="0" via=":J9_0_0" dir="r" state="M"/>
    <connection from="E5" to="E6" fromLane="0" toLane="0" via=":J10_0_0" dir="l" state="M"/>

    <connection from=":J10_0" to="E6" fromLane="0" toLane="0" dir="l" state="M"/>
    <connection from=":J9_0" to="E5" fromLane="0" toLane="0" dir="r" state="M"/>

</net>
